data_abc1
_audit_creation_date              2007-10-11
_audit_creation_method            'Materials Studio'
_symmetry_space_group_name_H-M    'P1'
_symmetry_Int_Tables_number       1
_symmetry_cell_setting            triclinic
loop_
_symmetry_equiv_pos_as_xyz
  x,y,z
_cell_length_a                    6.0000
_cell_length_b                    8.0000
_cell_length_c                   12.0000
_cell_angle_alpha                 90.0000
_cell_angle_beta                  90.0000
_cell_angle_gamma                 90.0000
loop_
_atom_site_label
_atom_site_type_symbol
_atom_site_fract_x
_atom_site_fract_y
_atom_site_fract_z
_atom_site_Uiso_or_equiv
_atom_site_adp_type
_atom_site_occupancy
A1     C     0.20616   0.92122   0.71349   0.00000  Uiso   1.00
A2     C     0.06359   0.97570   0.62977   0.00000  Uiso   1.00
A3     C     0.86042   0.05334   0.65578   0.00000  Uiso   1.00
A4     C     0.79721   0.07749   0.76572   0.00000  Uiso   1.00
A5     C     0.93828   0.02359   0.85167   0.00000  Uiso   1.00
A6     C     0.14310   0.94532   0.82412   0.00000  Uiso   1.00
A7     C     0.91287   0.03330   0.97023   0.00000  Uiso   1.00
A8     C     0.08713   0.96670   0.02977   0.00000  Uiso   1.00
A9     S     0.29742   0.88634   0.94348   0.00000  Uiso   1.00
A10    S     0.70258   0.11366   0.05652   0.00000  Uiso   1.00
A11    C     0.85690   0.05468   0.17588   0.00000  Uiso   1.00
A12    C     0.06172   0.97641   0.14833   0.00000  Uiso   1.00
A13    C     0.79384   0.07878   0.28651   0.00000  Uiso   1.00
A14    C     0.93641   0.02430   0.37023   0.00000  Uiso   1.00
A15    C     0.13958   0.94666   0.34422   0.00000  Uiso   1.00
A16    C     0.20279   0.92251   0.23428   0.00000  Uiso   1.00
A17    H     0.36296   0.86130   0.69318   0.00000  Uiso   1.00
A18    H     0.11027   0.95786   0.54335   0.00000  Uiso   1.00
A19    H     0.75192   0.09480   0.58909   0.00000  Uiso   1.00
A20    H     0.64025   0.13748   0.78579   0.00000  Uiso   1.00
A21    H     0.63704   0.13870   0.30682   0.00000  Uiso   1.00
A22    H     0.88973   0.04214   0.45665   0.00000  Uiso   1.00
A23    H     0.24808   0.90520   0.41091   0.00000  Uiso   1.00
A24    H     0.35975   0.86252   0.21421   0.00000  Uiso   1.00
A25    C     0.29384   0.42122   0.71349   0.00000  Uiso   1.00
A26    C     0.43641   0.47570   0.62977   0.00000  Uiso   1.00
A27    C     0.63958   0.55334   0.65578   0.00000  Uiso   1.00
A28    C     0.70279   0.57749   0.76572   0.00000  Uiso   1.00
A29    C     0.56172   0.52359   0.85167   0.00000  Uiso   1.00
A30    C     0.35690   0.44532   0.82412   0.00000  Uiso   1.00
A31    C     0.58713   0.53330   0.97023   0.00000  Uiso   1.00
A32    C     0.41287   0.46670   0.02977   0.00000  Uiso   1.00
A33    S     0.20258   0.38634   0.94348   0.00000  Uiso   1.00
A34    S     0.79742   0.61366   0.05652   0.00000  Uiso   1.00
A35    C     0.64310   0.55468   0.17588   0.00000  Uiso   1.00
A36    C     0.43828   0.47641   0.14833   0.00000  Uiso   1.00
A37    C     0.70616   0.57878   0.28651   0.00000  Uiso   1.00
A38    C     0.56359   0.52430   0.37023   0.00000  Uiso   1.00
A39    C     0.36042   0.44666   0.34422   0.00000  Uiso   1.00
A40    C     0.29721   0.42251   0.23428   0.00000  Uiso   1.00
A41    H     0.13704   0.36130   0.69318   0.00000  Uiso   1.00
A42    H     0.38973   0.45786   0.54335   0.00000  Uiso   1.00
A43    H     0.74808   0.59480   0.58909   0.00000  Uiso   1.00
A44    H     0.85975   0.63748   0.78579   0.00000  Uiso   1.00
A45    H     0.86296   0.63870   0.30682   0.00000  Uiso   1.00
A46    H     0.61027   0.54214   0.45665   0.00000  Uiso   1.00
A47    H     0.25192   0.40520   0.41091   0.00000  Uiso   1.00
A48    H     0.14025   0.36252   0.21421   0.00000  Uiso   1.00
